     120

 Fe1        -0.0001380343        2.9064420169        4.2712480458
 Fe1         0.0001792686        0.0019024833        8.8468096266
 Fe1         2.5171047256        1.4554239083       13.4298077500
 Fe2         2.5164653787        1.4527243307        2.5985129797
 Fe2        -0.0001298133        2.9069494222        7.1795194735
 Fe2         0.0003699070        0.0019330488       11.7624330268
 Fe1        -0.0000943545        2.9056605911        0.3097665454
 Fe1        -0.0001922212        0.0005919184        4.8927208003
 Fe1         2.5160088399        1.4543431519        9.4682832391
 Fe2        -0.0003882975        0.0005933013        1.9770900362
 Fe2         2.5161362425        1.4547211840        6.5601325667
 Fe2        -0.0000026518        2.9076232166       11.1409870590
  O         3.2881992200        0.1184002165        1.1409435463
  O         0.7694075101        1.5715134028        5.7282902076
  O        -1.7450007826        3.0241072800       10.3044557831
  O         3.2855316967        2.7883965847        1.1421936086
  O         0.7716839845        4.2407124055        5.7281828410
  O         0.7702847914        1.3363284992       10.3047090067
  O         0.9754148116        1.4520324514        1.1413674946
  O        -1.5416291662        2.9080903072        5.7287292913
  O         3.4901322220        0.0018651346       10.3045217059
  O        -0.7703889185        1.3350223135        3.4350090365
  O         1.7468771764        2.7903033588        8.0108897337
  O        -0.7714399232        4.2419648944       12.5977693335
  O         1.7451052315        3.0227588728        3.4347876596
  O         1.7450879987        0.1202228091        8.0108756035
  O        -0.7692959613        1.5728067866       12.5978393328
  O         1.5405167349        0.0006178528        3.4349648972
  O         4.0573718823        1.4529044115        8.0117417355
  O         1.5418196866        2.9092502507       12.5984993275
 Fe1         5.0332102860        2.9067763860        4.2712476254
 Fe1         5.0330040112        0.0016224728        8.8469390130
 Fe1         7.5499874604        1.4559813181       13.4298609206
 Fe2         7.5500436823        1.4531103856        2.5985137755
 Fe2         5.0332705785        2.9066771661        7.1802869178
 Fe2         5.0332236349        0.0021989793       11.7623177105
 Fe1         5.0326356864        2.9054528395        0.3106056516
 Fe1         5.0328547931        0.0008735564        4.8926080906
 Fe1         7.5495803002        1.4538844786        9.4682464128
 Fe2         5.0326339422        0.0003290207        1.9772050963
 Fe2         7.5490406559        1.4540404100        6.5601568573
 Fe2         5.0329804701        2.9079445209       11.1410002768
  O         8.3207356708        0.1189656451        1.1413266987
  O         5.8020648659        1.5718167999        5.7286488894
  O         3.2869730134        3.0251856761       10.3046351786
  O         8.3190562597        2.7890280885        1.1413911834
  O         5.8044755163        4.2403408154        5.7290147333
  O         5.8039903169        1.3368294412       10.3048380360
  O         6.0084619303        1.4517180798        1.1418762122
  O         3.4926314253        2.9081296728        5.7286771866
  O         8.5254323685        0.0018825846       10.3045099379
  O         4.2619425525        1.3355255915        3.4351538955
  O         6.7803780351        2.7896831433        8.0117613650
  O         4.2618940601        4.2415751432       12.5985477302
  O         6.7792539799        3.0238900819        3.4349329686
  O         6.7775251433        0.1196271269        8.0105215154
  O         4.2641634872        1.5730855943       12.5981964305
  O         6.5757990635        0.0006426685        3.4349523515
  O         9.0904559238        1.4531400766        8.0112271610
  O         6.5736714941        2.9092710201       12.5985566477
 Fe1        -2.5164369632        7.2657305519        4.2712773798
 Fe1        -2.5160515243        4.3606240666        8.8469436152
 Fe1         0.0004974078        5.8141840549       13.4290112782
 Fe2         0.0002650503        5.8117095621        2.5985331458
 Fe2        -2.5158958200        7.2655576782        7.1794523638
 Fe2        -2.5162781421        4.3602582515       11.7623203774
 Fe1        -2.5168777760        7.2636478316        0.3097272078
 Fe1        -2.5169033767        4.3591127155        4.8926132126
 Fe1         0.0000365388        5.8128685309        9.4682804159
 Fe2        -2.5166818070        4.3594803791        1.9772329370
 Fe2        -0.0000913366        5.8128469362        6.5592671226
 Fe2        -2.5169032082        7.2664886243       11.1410028630
  O         0.7712699151        4.4780830201        1.1409671202
  O        -1.7472399696        5.9299578367        5.7278474018
  O        -4.2624925199        7.3846802800       10.3044761858
  O         0.7690126726        7.1465777113        1.1413793694
  O        -1.7443983038        8.6000546375        5.7290527388
  O        -1.7461113775        5.6958030911       10.3045558867
  O        -1.5405005117        5.8103998250        1.1410438819
  O        -4.0573011317        7.2664754661        5.7283429080
  O         0.9751987975        4.3600608785       10.3043735785
  O        -3.2879000451        5.6955961259        3.4350216841
  O        -0.7689110651        7.1478346460        8.0109122336
  O        -3.2875641484        8.6006999124       12.5982397164
  O        -0.7708894838        7.3828526480        3.4346489775
  O        -0.7713007155        4.4793161853        8.0105799592
  O        -3.2859134165        5.9306173041       12.5982396458
  O        -0.9750739412        4.3588581557        3.4348347741
  O         1.5405441420        5.8115162114        8.0108403904
  O        -0.9753237417        7.2679346097       12.5977011390
 Fe1         2.5171192859        7.2653859708        4.2712486304
 Fe1         2.5166084051        4.3607494273        8.8469370389
 Fe1         5.0331086111        5.8140032981       13.4298171010
 Fe2         5.0330408067        5.8120154246        2.5985362946
 Fe2         2.5169646052        7.2649989507        7.1794406499
 Fe2         2.5172161928        4.3604172525       11.7622888852
 Fe1         2.5159989609        7.2643028133        0.3097447187
 Fe1         2.5165612376        4.3588739151        4.8925665581
 Fe1         5.0331797387        5.8132163575        9.4682671250
 Fe2         2.5159299194        4.3592343679        1.9772231324
 Fe2         5.0331499464        5.8126675483        6.5600737077
 Fe2         2.5166565970        7.2669714630       11.1410196295
  O         5.8045283395        4.4776843656        1.1418293699
  O         3.2862549079        5.9293419256        5.7285872353
  O         0.7711941076        7.3841407934       10.3043494195
  O         5.8024386852        7.1468482774        1.1417183675
  O         3.2880857600        8.5994537358        5.7286575265
  O         3.2880364804        5.6968985559       10.3047212816
  O         3.4913175841        5.8104007987        1.1410091586
  O         0.9757552158        7.2667753606        5.7278345197
  O         6.0082421629        4.3608447330       10.3046517008
  O         1.7462183857        5.6944762731        3.4348652980
  O         4.2637122308        7.1481373701        8.0112530791
  O         1.7449034725        8.6012792006       12.5986028874
  O         4.2628789697        7.3833257193        3.4347896053
  O         4.2614468219        4.4789440537        8.0113313942
  O         1.7475965161        5.9312642075       12.5973466244
  O         4.0579677454        4.3595598245        3.4351062632
  O         6.5747401624        5.8115874746        8.0108785192
  O         4.0577479585        7.2676721125       12.5981730843
