291

H 0.640298 0.854655 10.133970
H 0.642563 2.091569 9.173340
O 1.047065 1.748190 10.008900
H 4.584912 4.220884 30.933210
H 5.831687 5.164282 30.946740
O 4.997266 4.980432 30.450090
H 1.771868 5.010507 9.824100
H 2.807105 5.543925 8.779980
O 2.039724 4.925948 8.875680
H 9.246326 -0.619634 5.235780
H 8.817967 0.811678 4.775430
O 9.613433 0.263963 4.988940
H -3.879336 7.185762 6.761370
H -3.934648 6.275752 5.491530
O -3.325152 6.855808 6.011280
H 3.808874 0.837918 11.782650
H 5.132955 1.659098 11.939070
O 4.432664 1.420764 11.282370
H -0.025467 8.510809 27.270870
H 0.300118 7.639504 28.527510
O 0.543816 8.487534 28.079370
H -0.073784 0.981058 1.151040
H -0.066939 1.676358 2.550900
O -0.532642 0.977658 2.027520
H 2.646301 1.770419 18.059580
H 2.194992 3.264322 17.917020
O 2.016572 2.355706 17.568540
H 6.920174 3.560540 12.192180
H 8.246369 4.171979 12.756480
O 7.370174 4.422953 12.370380
H -0.528767 4.842174 20.612130
H -0.940768 3.905575 21.798480
O -1.318193 4.464797 21.073800
H 1.372046 3.071580 32.523480
H 2.768251 2.412108 32.750520
O 1.975704 2.747990 33.237270
H 1.645288 1.966822 5.446650
H 1.420262 1.198208 6.791400
O 1.627974 2.094445 6.428070
H 6.104576 4.091866 6.883470
H 5.501321 4.976858 8.021310
O 6.318227 4.477611 7.768860
H -4.268387 8.578631 17.193000
H -2.777461 8.138837 17.024040
O -3.646962 8.151041 16.552800
H 6.467556 1.626059 19.665690
H 7.331219 2.841440 19.184880
O 6.757708 2.534675 19.930350
H 8.717106 2.169677 24.190980
H 9.239380 1.410129 25.456860
O 8.915708 1.262368 24.533520
H 4.670825 7.207382 24.881670
H 5.499156 6.920230 23.584770
O 5.575004 7.308416 24.491610
H 4.356967 6.883094 3.016530
H 5.090729 5.548894 3.374910
O 4.204367 5.911800 3.126090
H 3.352733 2.547315 8.665470
H 4.804653 2.000559 8.483640
O 4.069885 2.444362 7.992270
H -0.857674 0.885776 28.240410
H -1.422225 -0.231011 27.300240
O -1.314519 0.008020 28.254600
H 6.340926 1.729622 3.209250
H 6.667265 3.260050 3.164700
O 7.072523 2.378371 3.359730
H 1.157791 3.071667 25.868700
H 0.141478 4.116623 25.292520
O 0.929293 3.571349 25.045350
H -0.841971 6.309924 26.327070
H -2.033936 5.310822 26.164710
O -1.830401 6.269563 26.301330
H 2.035798 8.839020 30.469890
H 1.246271 7.740887 31.257270
O 2.112652 7.913841 30.811440
H 5.356672 5.512107 13.881780
H 4.434073 4.265778 14.089680
O 5.047193 4.873731 14.572470
H -1.137760 7.095799 11.256630
H 0.001711 6.173497 11.804760
O -0.786306 6.698721 12.091530
H 6.304789 2.344722 25.460490
H 6.958475 1.901529 26.810850
O 6.745428 2.702746 26.271300
H 4.088709 3.258568 28.505400
H 3.523654 2.955115 27.079800
O 4.129677 2.593953 27.773460
H 2.181755 3.018753 12.173700
H 0.820530 3.777865 12.050610
O 1.762355 3.901913 12.326820
H -3.320874 5.531546 1.517010
H -3.037114 5.278393 0.001320
O -2.889697 5.936470 0.724680
H 6.840149 8.530859 19.685820
H 5.416263 7.888647 19.731030
O 6.266689 7.937552 20.233950
H 7.129949 2.994780 30.484740
H 6.936330 3.562893 29.039340
O 7.049270 2.715910 29.538300
H -2.078377 7.490610 29.203680
H -3.612033 7.255938 29.413560
O -2.768855 6.782495 29.200050
H 3.404523 0.741329 15.074070
H 3.555462 1.914605 14.050410
O 3.348002 1.726309 14.998830
H 4.499200 -0.092405 19.798020
H 3.947483 -0.149765 21.260580
O 4.485510 -0.662349 20.606190
H -0.174343 3.277398 14.506800
H 0.202780 2.130448 15.501090
O 0.362628 2.449157 14.578740
H 3.305725 7.693377 15.482940
H 4.373476 8.573574 14.753310
O 3.947835 7.681173 14.730540
H -0.827174 4.641412 28.397820
H -0.899951 3.342517 27.526950
O -0.356538 3.788587 28.223250
H 4.120467 1.167523 25.350600
H 3.383887 -0.099204 24.807750
O 4.065456 0.573954 24.561900
H 2.843595 6.438767 11.699490
H 3.696135 7.480760 10.901220
O 3.650636 7.007230 11.769450
H -0.916509 4.136238 10.160370
H -0.723242 5.426763 9.297750
O -0.966235 4.470114 9.230100
H 6.349230 4.679158 22.648560
H 6.610544 4.716468 24.191640
O 6.761030 4.163087 23.385450
H 1.297809 5.936209 21.997470
H 1.536072 4.411185 22.263450
O 1.606886 5.300971 22.690470
H -0.347378 8.942147 17.344800
H -0.321105 7.385914 17.178480
O 0.213299 8.200818 17.005560
H 0.701751 8.444644 9.167730
H 1.262578 8.257307 10.615110
O 1.122661 7.775757 9.761730
H 4.872145 3.098168 17.978730
H 6.061796 3.506579 17.049450
O 5.277000 2.905688 17.096640
H 7.512155 1.526070 14.949330
H 6.263015 2.289803 14.400210
O 7.159996 2.436604 14.792250
H 6.067986 1.766845 5.931750
H 6.166985 0.526793 6.879840
O 6.718149 1.218520 6.436650
H -2.011640 6.276624 18.805050
H -2.960813 5.676255 17.716050
O -2.782947 5.666841 18.688890
H 2.097251 4.979909 30.898230
H 1.287945 5.571995 29.697360
O 2.086984 5.029424 29.910210
H 2.929458 4.503153 6.282870
H 3.146682 6.035674 6.062430
O 3.616261 5.166200 6.023490
H 1.027034 7.153857 24.828870
H 1.694762 8.449003 25.396140
O 1.852949 7.696080 24.774420
H 3.981455 0.795987 1.363560
H 4.210406 -0.729822 1.105170
O 4.486064 0.012989 1.697850
H -2.073646 6.701336 22.923450
H -1.093671 5.749482 23.692680
O -1.122258 6.591409 23.173590
H -0.607986 5.968812 6.645210
H 0.688867 6.730103 7.079160
O 0.376317 5.958612 6.543570
H 1.461181 0.595574 12.809940
H 1.767690 -0.650493 13.705560
O 1.453782 -0.393765 12.803010
H -0.561079 5.944403 31.677030
H -0.503602 4.484062 31.118670
O -1.075552 5.291120 31.140450
H 7.386531 0.195793 0.431310
H 7.127382 1.521450 -0.360360
O 6.964716 1.086974 0.513480
H 3.988049 2.661077 4.792590
H 3.478457 2.364598 3.340920
O 4.008634 3.012650 3.868590
H -1.642620 7.513624 8.363520
H -1.920492 8.643139 9.408300
O -2.042089 8.413697 8.454270
H -0.252455 4.570539 18.040110
H -1.272493 3.746133 17.183430
O -0.433241 4.266301 17.116440
H -0.913238 5.852957 14.786970
H -2.318502 5.290946 15.183960
O -1.823506 6.137668 15.050640
H 5.371620 3.346440 0.118800
H 4.343580 4.294894 0.820050
O 4.937977 3.522009 0.990660
H 2.287901 6.393524 27.415080
H 2.662457 5.352142 26.312220
O 1.954163 5.578708 26.965290
H 7.755652 1.115480 12.236070
H 9.002980 2.000733 11.896170
O 8.731601 1.186004 12.386550
H -1.897491 3.576493 5.650260
H -1.152557 2.913010 6.857400
O -0.999906 3.295792 5.957490
H -1.260515 9.102460 5.881260
H -0.622582 8.919133 4.464240
O -0.917365 8.412389 5.260860
H -0.346119 0.492621 30.834210
H -0.638285 2.028193 30.807150
O -0.525546 1.265071 31.425900
H 1.479098 7.734262 13.372260
H 0.295940 8.690911 13.725030
O 0.928287 8.048961 14.131260
H 4.201498 8.616900 22.122870
H 3.294551 7.403785 22.494120
O 3.499898 8.024813 21.753270
H -3.353740 9.247866 22.626780
H -4.136975 10.603947 22.645920
O -3.443931 10.092758 23.133990
H 2.017176 7.091876 19.598700
H 1.803777 5.543838 19.497060
O 1.516342 6.401718 19.096110
H 5.886949 6.952049 9.592440
H 6.948660 5.923307 10.097340
O 6.350941 6.645806 10.410510
H 3.926143 3.310524 23.379510
H 3.933793 4.707054 24.087690
O 3.817631 3.740118 24.264570
H 4.713052 1.010784 31.799460
H 4.315093 0.767307 30.305880
O 4.651297 1.464525 30.922320
H 8.109874 -0.764517 7.723980
H 9.345224 0.195357 7.776780
O 9.030360 -0.692598 8.079390
H -3.368839 8.081128 2.255220
H -3.063939 9.115362 3.386130
O -3.189110 8.147119 3.225090
H 2.149242 6.441906 1.286670
H 1.518557 5.532069 0.183810
O 1.303899 6.274706 0.799590
H 3.849037 6.413748 32.453520
H 4.610530 7.160656 33.597300
O 4.521396 7.120992 32.613240
H 1.128348 7.069559 3.497340
H 1.790490 7.689542 4.767840
O 1.789584 7.747948 3.780480
H 1.683891 4.273537 2.742630
H 1.346629 4.564088 4.243140
O 1.107411 3.971043 3.487770
H 2.126946 2.353701 30.220740
H 1.753749 1.033449 29.474940
O 1.724708 2.017558 29.381880
H -1.267158 3.804540 1.780680
H -1.267309 3.327610 0.291390
O -0.769042 3.894940 0.930930
H -0.204340 2.392058 19.172010
H -0.721632 1.694142 20.470890
O 0.105441 2.010148 20.029680
H 6.907642 2.222678 10.018470
H 8.141381 1.350676 9.625440
O 7.485178 1.988093 9.250560
H 5.198334 5.146498 26.403630
H 4.808428 6.084928 27.596580
O 5.465234 5.396601 27.323340
H -1.130210 6.116659 2.949540
H -2.224787 5.364172 3.777510
O -1.307422 5.728821 3.842520
H 5.247456 3.954131 10.310190
H 4.517319 4.322616 11.642070
O 4.394111 4.308319 10.660980
H 1.163579 -0.445721 26.962650
H 2.484238 0.363952 27.161640
O 1.580664 0.428722 26.763660
H -3.078837 8.650549 32.874270
H -2.122768 7.871213 31.911000
O -2.914258 8.464345 31.916610
H 1.626112 5.767004 15.972000
H 2.232236 4.399329 15.511980
O 1.867092 5.250236 15.162840
H 8.367262 0.287152 18.433800
H 8.693551 1.221571 17.222700
O 7.989183 0.629571 17.586030
H 6.073673 0.364998 22.553190
H 7.034221 1.591276 22.436700
O 6.088068 1.352681 22.600380
H 4.166670 5.108839 21.415020
H 5.178353 4.771388 20.268930
O 4.455061 5.400524 20.514450
H 3.985985 2.423353 20.289720
H 2.639909 3.217771 20.355060
O 3.132942 2.476791 20.787690
H 4.165965 6.700115 17.914380
H 3.643087 5.260261 17.607480
O 4.342523 5.909446 17.347440
